Version 4
SHEET 1 1188 680
WIRE 224 -128 112 -128
WIRE 448 -128 288 -128
WIRE -112 -80 -144 -80
WIRE -112 -48 -112 -80
WIRE -224 -16 -224 -80
WIRE -256 0 -368 0
WIRE 256 0 224 0
WIRE 384 0 336 0
WIRE -368 16 -368 0
WIRE -48 16 -192 16
WIRE -16 16 -48 16
WIRE 112 16 112 -128
WIRE 112 16 64 16
WIRE -256 32 -320 32
WIRE 384 48 384 0
WIRE 720 80 688 80
WIRE 752 80 720 80
WIRE 896 80 832 80
WIRE -224 96 -224 48
WIRE -224 96 -288 96
WIRE -48 96 -48 16
WIRE 896 96 896 80
WIRE 720 112 720 80
WIRE -288 128 -288 96
WIRE -240 128 -288 128
WIRE -128 128 -160 128
WIRE 224 128 224 0
WIRE 112 144 112 16
WIRE 192 144 112 144
WIRE -128 160 -128 128
WIRE 448 160 448 -128
WIRE 448 160 256 160
WIRE 624 160 448 160
WIRE 192 176 128 176
WIRE 128 208 128 176
WIRE -320 224 -320 32
WIRE -48 224 -48 176
WIRE -48 224 -320 224
WIRE -48 272 -48 224
WIRE 224 304 224 192
WIRE 272 304 224 304
WIRE 400 304 352 304
WIRE 400 368 400 304
WIRE -48 416 -48 352
WIRE 448 416 448 160
WIRE 448 416 -48 416
FLAG 896 96 0
FLAG 720 112 o
IOPIN 720 112 Out
FLAG 384 48 0
FLAG 400 368 0
FLAG 128 208 0
FLAG -112 -48 0
FLAG -128 160 0
FLAG -368 16 0
SYMBOL voltage 240 0 R270
WINDOW 123 0 0 Left 0
WINDOW 39 0 0 Left 0
SYMATTR InstName V1
SYMATTR Value 12
SYMBOL voltage 368 304 R90
WINDOW 123 0 0 Left 0
WINDOW 39 0 0 Left 0
SYMATTR InstName V2
SYMATTR Value 12
SYMBOL OpAmps\\ua741 224 96 R0
SYMATTR InstName U1
SYMBOL res 848 64 R90
WINDOW 0 0 56 VBottom 2
WINDOW 3 32 56 VTop 2
SYMATTR InstName pot
SYMATTR Value 10k
SYMBOL res 592 96 R270
WINDOW 0 32 56 VTop 2
WINDOW 3 0 56 VBottom 2
SYMATTR InstName R5
SYMATTR Value 1k
SYMBOL cap 288 -144 R90
WINDOW 0 0 32 VBottom 2
WINDOW 3 32 32 VTop 2
SYMATTR InstName C1
SYMATTR Value 1µ
SYMBOL res -64 256 R0
SYMATTR InstName R1
SYMATTR Value 10k
SYMBOL res -64 80 R0
SYMATTR InstName R2
SYMATTR Value 10k
SYMBOL res 80 0 R90
WINDOW 0 0 56 VBottom 2
WINDOW 3 32 56 VTop 2
SYMATTR InstName pot2
SYMATTR Value 10k
SYMBOL OpAmps\\ua741 -224 -48 R0
SYMATTR InstName U2
SYMBOL voltage -240 -80 R270
WINDOW 0 32 56 VTop 2
WINDOW 3 -32 56 VBottom 2
SYMATTR InstName V3
SYMATTR Value 12
SYMBOL voltage -144 128 R90
WINDOW 0 -32 56 VBottom 2
WINDOW 3 32 56 VTop 2
SYMATTR InstName V4
SYMATTR Value 12
TEXT 24 496 Left 2 !.tran 10
TEXT 16 464 Left 2 !.lib. ua741.lib.txt
