Version 4
SHEET 1 2336 868
WIRE 1296 -144 1200 -144
WIRE 1200 -112 1200 -144
WIRE 1680 -96 1504 -96
WIRE 2096 -96 1760 -96
WIRE -144 -64 -288 -64
WIRE -144 -32 -144 -64
WIRE -288 -16 -288 -64
WIRE -288 -16 -368 -16
WIRE -208 -16 -288 -16
WIRE -368 0 -368 -16
WIRE 448 0 32 0
WIRE 576 0 512 0
WIRE 848 0 656 0
WIRE -208 16 -208 -16
WIRE 304 80 240 80
WIRE 432 80 384 80
WIRE 1296 80 1296 -144
WIRE 1296 80 1072 80
WIRE -368 96 -368 64
WIRE -208 96 -368 96
WIRE 32 96 32 0
WIRE 32 96 -208 96
WIRE 432 96 432 80
WIRE 1072 96 1072 80
WIRE 240 112 240 80
WIRE 1040 112 960 112
WIRE 208 128 128 128
WIRE 1328 128 1104 128
WIRE 1504 128 1504 -96
WIRE 1504 128 1408 128
WIRE 1552 128 1504 128
WIRE 2096 128 2096 -96
WIRE 2096 128 1616 128
WIRE 848 144 848 0
WIRE 848 144 272 144
WIRE 960 144 960 112
WIRE 960 144 848 144
WIRE 1040 144 1008 144
WIRE 32 160 32 96
WIRE 208 160 32 160
WIRE 240 192 240 176
WIRE 544 192 240 192
WIRE 752 192 624 192
WIRE 1008 192 1008 144
WIRE 1856 192 1824 192
WIRE 1968 192 1936 192
WIRE 128 224 128 128
WIRE 128 224 -96 224
WIRE 1968 256 1968 192
WIRE -96 272 -96 224
WIRE 416 304 384 304
WIRE 848 304 848 144
WIRE 848 304 496 304
WIRE 1824 304 1824 192
WIRE 1072 320 1072 160
WIRE 1136 320 1072 320
WIRE 1280 320 1216 320
WIRE 1504 320 1504 128
WIRE 1792 320 1504 320
WIRE 2096 336 2096 128
WIRE 2096 336 1856 336
WIRE 2224 336 2096 336
WIRE 128 352 128 224
WIRE 384 352 384 304
WIRE 384 352 128 352
WIRE 656 352 592 352
WIRE 784 352 720 352
WIRE 1792 352 1664 352
WIRE 1280 368 1280 320
WIRE 384 400 384 352
WIRE 432 400 384 400
WIRE 592 400 592 352
WIRE 592 400 512 400
WIRE 784 416 784 352
WIRE 848 416 848 304
WIRE 848 416 784 416
WIRE 592 464 592 400
WIRE 656 464 592 464
WIRE 784 464 784 416
WIRE 784 464 720 464
WIRE 1664 464 1664 352
WIRE 1824 512 1824 368
WIRE 1840 512 1824 512
WIRE 1984 512 1920 512
WIRE 1984 528 1984 512
WIRE 1664 592 1664 544
FLAG -144 -32 0
FLAG -96 352 0
FLAG 432 96 0
FLAG 752 192 0
FLAG 1200 -32 0
FLAG 1280 368 0
FLAG 1008 192 0
FLAG 1968 256 0
FLAG 1984 528 0
FLAG 1664 592 0
FLAG 2224 336 Vout
IOPIN 2224 336 Out
SYMBOL OpAmps\\opamp2 240 80 R0
SYMATTR InstName U1
SYMATTR Value UA741
SYMBOL res 512 288 R90
WINDOW 0 0 56 VBottom 2
WINDOW 3 32 56 VTop 2
SYMATTR InstName R1
SYMATTR Value 22K
SYMBOL res 528 384 R90
WINDOW 0 0 56 VBottom 2
WINDOW 3 32 56 VTop 2
SYMATTR InstName R2
SYMATTR Value 100K
SYMBOL diode 656 368 R270
WINDOW 0 32 32 VTop 2
WINDOW 3 0 32 VBottom 2
SYMATTR InstName D1
SYMATTR Value 1N914
SYMBOL diode 720 448 R90
WINDOW 0 0 32 VBottom 2
WINDOW 3 32 32 VTop 2
SYMATTR InstName D2
SYMATTR Value 1N914
SYMBOL res 672 -16 R90
WINDOW 0 0 56 VBottom 2
WINDOW 3 32 56 VTop 2
SYMATTR InstName R3
SYMATTR Value 150k
SYMBOL cap 512 -16 R90
WINDOW 0 0 32 VBottom 2
WINDOW 3 32 32 VTop 2
SYMATTR InstName C1
SYMATTR Value 0.1µ
SYMBOL cap -384 0 R0
SYMATTR InstName C2
SYMATTR Value 0.1µ
SYMBOL res -224 0 R0
SYMATTR InstName R4
SYMATTR Value 150k
SYMBOL res -112 256 R0
SYMATTR InstName R5
SYMATTR Value 10K
SYMBOL voltage 288 80 R270
WINDOW 0 32 56 VTop 2
WINDOW 3 -32 56 VBottom 2
WINDOW 123 0 0 Left 0
WINDOW 39 0 0 Left 0
SYMATTR InstName V1
SYMATTR Value 15
SYMBOL voltage 640 192 R90
WINDOW 0 -32 56 VBottom 2
WINDOW 3 32 56 VTop 2
WINDOW 123 0 0 Left 0
WINDOW 39 0 0 Left 0
SYMATTR InstName V2
SYMATTR Value 15
SYMBOL voltage 1200 -128 R0
WINDOW 123 0 0 Left 0
WINDOW 39 0 0 Left 0
SYMATTR InstName V3
SYMATTR Value 12
SYMBOL OpAmps\\ua741 1072 64 R0
SYMATTR InstName U2
SYMBOL voltage 1232 320 R90
WINDOW 0 -32 56 VBottom 2
WINDOW 3 32 56 VTop 2
SYMATTR InstName V4
SYMATTR Value 12
SYMBOL res 1424 112 R90
WINDOW 0 0 56 VBottom 2
WINDOW 3 32 56 VTop 2
SYMATTR InstName R6
SYMATTR Value 3300k
SYMBOL OpAmps\\ua741 1824 272 R0
SYMATTR InstName U3
SYMBOL voltage 1936 512 R90
WINDOW 0 -32 56 VBottom 2
WINDOW 3 32 56 VTop 2
SYMATTR InstName V5
SYMATTR Value 12
SYMBOL voltage 1840 192 R270
WINDOW 0 32 56 VTop 2
WINDOW 3 -32 56 VBottom 2
SYMATTR InstName V6
SYMATTR Value 12
SYMBOL cap 1616 112 R90
WINDOW 0 0 32 VBottom 2
WINDOW 3 32 32 VTop 2
SYMATTR InstName C3
SYMATTR Value 0.01µ
SYMBOL res 1648 448 R0
SYMATTR InstName R7
SYMATTR Value 3300k
SYMBOL res 1776 -112 R90
WINDOW 0 0 56 VBottom 2
WINDOW 3 32 56 VTop 2
SYMATTR InstName R8
SYMATTR Value 10000k
TEXT -320 544 Left 2 !.lib. ua741.lib.txt
TEXT -312 568 Left 2 !.tran 10s
